pglib-scots/SCOTS-Slack/slack_relative_quadratic/pglib_opf_case300_ieee_scots.m
%%%%%%%%%%%%%%%%%%%%%%%%%%%%%%%%%%%%%%%%%%%%%%%%%%%%%%%%%%%%%%%%%%%%%%%%%%%
%%%%                                                                  %%%%%
%%%%    This is a modified SCOTS-feasible instance adapted from the   %%%%%
%%%%                                :                                 %%%%%
%%%%    IEEE PES Power Grid Library - Optimal Power Flow - v21.07     %%%%%
%%%%          (https://github.com/power-grid-lib/pglib-opf)           %%%%%
%%%%               Benchmark Group - Typical Operations               %%%%%
%%%%                         29 - July - 2021                         %%%%%
%%%%                                                                  %%%%%
%%%%%%%%%%%%%%%%%%%%%%%%%%%%%%%%%%%%%%%%%%%%%%%%%%%%%%%%%%%%%%%%%%%%%%%%%%%
%
%   Power flow data for IEEE 300 bus test case.
%   This data was converted from IEEE Common Data Format
%   (ieee300cdf.txt) on 20-Sep-2004 by cdf2matp, rev. 1.11
%
%   Converted from IEEE CDF file from:
%       http://www.ee.washington.edu/research/pstca/
%
%   Copyright (c) 1999 by Richard D. Christie, University of Washington
%   Electrical Engineering Licensed under the Creative Commons Attribution 4.0
%   International license, http://creativecommons.org/licenses/by/4.0/
%
%   CDF Header:
%   13/05/91 CYME INTERNATIONAL    100.0 1991 S IEEE 300-BUS TEST SYSTEM
%
%% MATPOWER Case Format : Version 2
function mpc = pglib_opf_case300_ieee
mpc.version = '2';

%%-----  Power Flow Data  -----%%
%% system MVA base
mpc.baseMVA = 100.0;
%% bus data
%    bus_i    type    Pd    Qd    Gs    Bs    area    Vm    Va    baseKV    zone    Vmax    Vmin
mpc.bus = [
	1	1	90.0	49.0	0.0	0.0	1	1.0	0.0	115.0	1	1.06	0.94				
	2	1	56.0	15.0	0.0	0.0	1	1.0	0.0	115.0	1	1.06	0.94				
	3	1	20.0	0.0	0.0	0.0	1	1.0	0.0	230.0	1	1.06	0.94				
	4	1	0.0	0.0	0.0	0.0	1	1.0	0.0	345.0	1	1.06	0.94				
	5	1	353.0	130.0	0.0	0.0	1	1.0	0.0	115.0	1	1.06	0.94				
	6	1	120.0	41.0	0.0	0.0	1	1.0	0.0	115.0	1	1.06	0.94				
	7	1	0.0	0.0	0.0	0.0	1	1.0	0.0	230.0	1	1.06	0.94				
	8	2	63.0	14.0	0.0	0.0	1	1.0	0.0	115.0	1	1.06	0.94				
	9	1	96.0	43.0	0.0	0.0	1	1.0	0.0	115.0	1	1.06	0.94				
	10	2	153.0	33.0	0.0	0.0	1	1.0	0.0	230.0	1	1.06	0.94				
	11	1	83.0	21.0	0.0	0.0	1	1.0	0.0	115.0	1	1.06	0.94				
	12	1	0.0	0.0	0.0	0.0	1	1.0	0.0	230.0	1	1.06	0.94				
	13	1	58.0	10.0	0.0	0.0	1	1.0	0.0	115.0	1	1.06	0.94				
	14	1	160.0	60.0	0.0	0.0	1	1.0	0.0	115.0	1	1.06	0.94				
	15	1	126.7	23.0	0.0	0.0	1	1.0	0.0	115.0	1	1.06	0.94				
	16	1	0.0	0.0	0.0	0.0	1	1.0	0.0	345.0	1	1.06	0.94				
	17	1	561.0	220.0	0.0	0.0	1	1.0	0.0	115.0	1	1.06	0.94				
	19	1	0.0	0.0	0.0	0.0	1	1.0	0.0	230.0	1	1.06	0.94				
	20	2	605.0	120.0	0.0	0.0	1	1.0	0.0	115.0	1	1.06	0.94				
	21	1	77.0	1.0	0.0	0.0	1	1.0	0.0	230.0	1	1.06	0.94				
	22	1	81.0	23.0	0.0	0.0	1	1.0	0.0	115.0	1	1.06	0.94				
	23	1	21.0	7.0	0.0	0.0	1	1.0	0.0	115.0	1	1.06	0.94				
	24	1	0.0	0.0	0.0	0.0	1	1.0	0.0	230.0	1	1.06	0.94				
	25	1	45.0	12.0	0.0	0.0	1	1.0	0.0	115.0	1	1.06	0.94				
	26	1	28.0	9.0	0.0	0.0	1	1.0	0.0	115.0	1	1.06	0.94				
	27	1	69.0	13.0	0.0	0.0	1	1.0	0.0	115.0	1	1.06	0.94				
	33	1	55.0	6.0	0.0	0.0	1	1.0	0.0	115.0	1	1.06	0.94				
	34	1	0.0	0.0	0.0	0.0	1	1.0	0.0	345.0	1	1.06	0.94				
	35	1	0.0	0.0	0.0	0.0	1	1.0	0.0	115.0	1	1.06	0.94				
	36	1	0.0	0.0	0.0	0.0	1	1.0	0.0	230.0	1	1.06	0.94				
	37	1	85.0	32.0	0.0	0.0	1	1.0	0.0	115.0	1	1.06	0.94				
	38	1	155.0	18.0	0.0	0.0	1	1.0	0.0	115.0	1	1.06	0.94				
	39	1	0.0	0.0	0.0	0.0	1	1.0	0.0	345.0	1	1.06	0.94				
	40	1	46.0	-21.0	0.0	0.0	1	1.0	0.0	115.0	1	1.06	0.94				
	41	1	86.0	0.0	0.0	0.0	1	1.0	0.0	115.0	1	1.06	0.94				
	42	1	0.0	0.0	0.0	0.0	1	1.0	0.0	345.0	1	1.06	0.94				
	43	1	39.0	9.0	0.0	0.0	1	1.0	0.0	115.0	1	1.06	0.94				
	44	1	195.0	29.0	0.0	0.0	1	1.0	0.0	115.0	1	1.06	0.94				
	45	1	0.0	0.0	0.0	0.0	1	1.0	0.0	230.0	1	1.06	0.94				
	46	1	0.0	0.0	0.0	0.0	1	1.0	0.0	345.0	1	1.06	0.94				
	47	1	58.0	11.8	0.0	0.0	1	1.0	0.0	115.0	1	1.06	0.94				
	48	1	41.0	19.0	0.0	0.0	1	1.0	0.0	115.0	1	1.06	0.94				
	49	1	92.0	26.0	0.0	0.0	1	1.0	0.0	115.0	1	1.06	0.94				
	51	1	-5.0	5.0	0.0	0.0	1	1.0	0.0	115.0	1	1.06	0.94				
	52	1	61.0	28.0	0.0	0.0	1	1.0	0.0	115.0	1	1.06	0.94				
	53	1	69.0	3.0	0.0	0.0	1	1.0	0.0	115.0	1	1.06	0.94				
	54	1	10.0	1.0	0.0	0.0	1	1.0	0.0	115.0	1	1.06	0.94				
	55	1	22.0	10.0	0.0	0.0	1	1.0	0.0	115.0	1	1.06	0.94				
	57	1	98.0	20.0	0.0	0.0	1	1.0	0.0	115.0	1	1.06	0.94				
	58	1	14.0	1.0	0.0	0.0	1	1.0	0.0	115.0	1	1.06	0.94				
	59	1	218.0	106.0	0.0	0.0	1	1.0	0.0	115.0	1	1.06	0.94				
	60	1	0.0	0.0	0.0	0.0	1	1.0	0.0	230.0	1	1.06	0.94				
	61	1	227.0	110.0	0.0	0.0	1	1.0	0.0	115.0	1	1.06	0.94				
	62	1	0.0	0.0	0.0	0.0	1	1.0	0.0	230.0	1	1.06	0.94				
	63	2	70.0	30.0	0.0	0.0	1	1.0	0.0	115.0	1	1.06	0.94				
	64	1	0.0	0.0	0.0	0.0	1	1.0	0.0	230.0	1	1.06	0.94				
	69	1	0.0	0.0	0.0	0.0	1	1.0	0.0	115.0	1	1.06	0.94				
	70	1	56.0	20.0	0.0	0.0	1	1.0	0.0	115.0	1	1.06	0.94				
	71	1	116.0	38.0	0.0	0.0	1	1.0	0.0	115.0	1	1.06	0.94				
	72	1	57.0	19.0	0.0	0.0	1	1.0	0.0	115.0	1	1.06	0.94				
	73	1	224.0	71.0	0.0	0.0	1	1.0	0.0	115.0	1	1.06	0.94				
	74	1	0.0	0.0	0.0	0.0	1	1.0	0.0	230.0	1	1.06	0.94				
	76	2	208.0	107.0	0.0	0.0	1	1.0	0.0	115.0	1	1.06	0.94				
	77	1	74.0	28.0	0.0	0.0	1	1.0	0.0	115.0	1	1.06	0.94				
	78	1	0.0	0.0	0.0	0.0	1	1.0	0.0	115.0	1	1.06	0.94				
	79	1	48.0	14.0	0.0	0.0	1	1.0	0.0	115.0	1	1.06	0.94				
	80	1	28.0	7.0	0.0	0.0	1	1.0	0.0	115.0	1	1.06	0.94				
	81	1	0.0	0.0	0.0	0.0	1	1.0	0.0	345.0	1	1.06	0.94				
	84	2	37.0	13.0	0.0	0.0	1	1.0	0.0	115.0	1	1.06	0.94				
	85	1	0.0	0.0	0.0	0.0	1	1.0	0.0	230.0	1	1.06	0.94				
	86	1	0.0	0.0	0.0	0.0	1	1.0	0.0	230.0	1	1.06	0.94				
	87	1	0.0	0.0	0.0	0.0	1	1.0	0.0	230.0	1	1.06	0.94				
	88	1	0.0	0.0	0.0	0.0	1	1.0	0.0	230.0	1	1.06	0.94				
	89	1	44.2	0.0	0.0	0.0	1	1.0	0.0	115.0	1	1.06	0.94				
	90	1	66.0	0.0	0.0	0.0	1	1.0	0.0	115.0	1	1.06	0.94				
	91	2	17.4	0.0	0.0	0.0	1	1.0	0.0	115.0	1	1.06	0.94				
	92	2	15.8	0.0	0.0	0.0	1	1.0	0.0	115.0	1	1.06	0.94				
	94	1	60.3	0.0	0.0	0.0	1	1.0	0.0	115.0	1	1.06	0.94				
	97	1	39.9	0.0	0.0	0.0	1	1.0	0.0	115.0	1	1.06	0.94				
	98	2	66.7	0.0	0.0	0.0	1	1.0	0.0	115.0	1	1.06	0.94				
	99	1	83.5	0.0	0.0	0.0	1	1.0	0.0	115.0	1	1.06	0.94				
	100	1	0.0	0.0	0.0	0.0	1	1.0	0.0	115.0	1	1.06	0.94				
	102	1	77.8	0.0	0.0	0.0	1	1.0	0.0	115.0	1	1.06	0.94				
	103	1	32.0	0.0	0.0	0.0	1	1.0	0.0	115.0	1	1.06	0.94				
	104	1	8.6	0.0	0.0	0.0	1	1.0	0.0	115.0	1	1.06	0.94				
	105	1	49.6	0.0	0.0	0.0	1	1.0	0.0	115.0	1	1.06	0.94				
	107	1	4.6	0.0	0.0	0.0	1	1.0	0.0	115.0	1	1.06	0.94				
	108	2	112.1	0.0	0.0	0.0	1	1.0	0.0	115.0	1	1.06	0.94				
	109	1	30.7	0.0	0.0	0.0	1	1.0	0.0	115.0	1	1.06	0.94				
	110	1	63.0	0.0	0.0	0.0	1	1.0	0.0	115.0	1	1.06	0.94				
	112	1	19.6	0.0	0.0	0.0	1	1.0	0.0	115.0	1	1.06	0.94				
	113	1	26.2	0.0	0.0	0.0	1	1.0	0.0	115.0	1	1.06	0.94				
	114	1	18.2	0.0	0.0	0.0	1	1.0	0.0	115.0	1	1.06	0.94				
	115	1	0.0	0.0	0.0	0.0	1	1.0	0.0	115.0	2	1.06	0.94				
	116	1	0.0	0.0	0.0	0.0	1	1.0	0.0	115.0	2	1.06	0.94				
	117	1	0.0	0.0	0.0	325.0	1	1.0	0.0	115.0	2	1.06	0.94				
	118	1	14.1	650.0	0.0	0.0	1	1.0	0.0	115.0	2	1.06	0.94				
	119	2	0.0	0.0	0.0	0.0	1	1.0	0.0	115.0	2	1.06	0.94				
	120	1	777.0	215.0	0.0	55.0	1	1.0	0.0	115.0	2	1.06	0.94				
	121	1	535.0	55.0	0.0	0.0	1	1.0	0.0	115.0	2	1.06	0.94				
	122	1	229.1	11.8	0.0	0.0	1	1.0	0.0	115.0	2	1.06	0.94				
	123	1	78.0	1.4	0.0	0.0	1	1.0	0.0	115.0	2	1.06	0.94				
	124	2	276.4	59.3	0.0	0.0	1	1.0	0.0	115.0	2	1.06	0.94				
	125	2	514.8	82.7	0.0	0.0	1	1.0	0.0	115.0	2	1.06	0.94				
	126	1	57.9	5.1	0.0	0.0	1	1.0	0.0	115.0	2	1.06	0.94				
	127	1	380.8	37.0	0.0	0.0	1	1.0	0.0	230.0	2	1.06	0.94				
	128	1	0.0	0.0	0.0	0.0	1	1.0	0.0	230.0	2	1.06	0.94				
	129	1	0.0	0.0	0.0	0.0	1	1.0	0.0	230.0	2	1.06	0.94				
	130	1	0.0	0.0	0.0	0.0	1	1.0	0.0	230.0	2	1.06	0.94				
	131	1	0.0	0.0	0.0	0.0	1	1.0	0.0	230.0	2	1.06	0.94				
	132	1	0.0	0.0	0.0	0.0	1	1.0	0.0	230.0	2	1.06	0.94				
	133	1	0.0	0.0	0.0	0.0	1	1.0	0.0	230.0	2	1.06	0.94				
	134	1	0.0	0.0	0.0	0.0	1	1.0	0.0	230.0	2	1.06	0.94				
	135	1	169.2	41.6	0.0	0.0	1	1.0	0.0	230.0	2	1.06	0.94				
	136	1	55.2	18.2	0.0	0.0	1	1.0	0.0	230.0	2	1.06	0.94				
	137	1	273.6	99.8	0.0	0.0	1	1.0	0.0	230.0	2	1.06	0.94				
	138	2	1019.2	135.2	0.0	0.0	1	1.0	0.0	230.0	2	1.06	0.94				
	139	1	595.0	83.3	0.0	0.0	1	1.0	0.0	115.0	2	1.06	0.94				
	140	1	387.7	114.7	0.0	0.0	1	1.0	0.0	230.0	2	1.06	0.94				
	141	2	145.0	58.0	0.0	0.0	1	1.0	0.0	230.0	2	1.06	0.94				
	142	1	56.5	24.5	0.0	0.0	1	1.0	0.0	230.0	2	1.06	0.94				
	143	2	89.5	35.5	0.0	0.0	1	1.0	0.0	230.0	2	1.06	0.94				
	144	1	0.0	0.0	0.0	0.0	1	1.0	0.0	230.0	2	1.06	0.94				
	145	1	24.0	14.0	0.0	0.0	1	1.0	0.0	230.0	2	1.06	0.94				
	146	2	0.0	0.0	0.0	0.0	1	1.0	0.0	230.0	2	1.06	0.94				
	147	2	0.0	0.0	0.0	0.0	1	1.0	0.0	230.0	2	1.06	0.94				
	148	1	63.0	25.0	0.0	0.0	1	1.0	0.0	230.0	2	1.06	0.94				
	149	2	0.0	0.0	0.0	0.0	1	1.0	0.0	230.0	2	1.06	0.94				
	150	1	0.0	0.0	0.0	0.0	1	1.0	0.0	230.0	2	1.06	0.94				
	151	1	0.0	0.0	0.0	0.0	1	1.0	0.0	230.0	2	1.06	0.94				
	152	2	17.0	9.0	0.0	0.0	1	1.0	0.0	230.0	2	1.06	0.94				
	153	2	0.0	0.0	0.0	0.0	1	1.0	0.0	230.0	2	1.06	0.94				
	154	1	70.0	5.0	0.0	34.5	1	1.0	0.0	115.0	2	1.06	0.94				
	155	1	200.0	50.0	0.0	0.0	1	1.0	0.0	230.0	2	1.06	0.94				
	156	2	75.0	50.0	0.0	0.0	1	1.0	0.0	115.0	2	1.06	0.94				
	157	1	123.5	-24.3	0.0	0.0	1	1.0	0.0	230.0	2	1.06	0.94				
	158	1	0.0	0.0	0.0	0.0	1	1.0	0.0	230.0	2	1.06	0.94				
	159	1	33.0	16.5	0.0	0.0	1	1.0	0.0	230.0	2	1.06	0.94				
	160	1	0.0	0.0	0.0	0.0	1	1.0	0.0	230.0	2	1.06	0.94				
	161	1	35.0	15.0	0.0	0.0	1	1.0	0.0	230.0	2	1.06	0.94				
	162	1	85.0	24.0	0.0	0.0	1	1.0	0.0	230.0	2	1.06	0.94				
	163	1	0.0	0.4	0.0	0.0	1	1.0	0.0	230.0	2	1.06	0.94				
	164	1	0.0	0.0	0.0	-212.0	1	1.0	0.0	230.0	2	1.06	0.94				
	165	1	0.0	0.0	0.0	0.0	1	1.0	0.0	230.0	2	1.06	0.94				
	166	1	0.0	0.0	0.0	-103.0	1	1.0	0.0	230.0	2	1.06	0.94				
	167	1	299.9	95.7	0.0	0.0	1	1.0	0.0	230.0	2	1.06	0.94				
	168	1	0.0	0.0	0.0	0.0	1	1.0	0.0	230.0	2	1.06	0.94				
	169	1	0.0	0.0	0.0	0.0	1	1.0	0.0	230.0	2	1.06	0.94				
	170	2	481.8	205.0	0.0	0.0	1	1.0	0.0	115.0	2	1.06	0.94				
	171	2	763.6	291.1	0.0	0.0	1	1.0	0.0	115.0	2	1.06	0.94				
	172	1	26.5	0.0	0.0	0.0	1	1.0	0.0	115.0	2	1.06	0.94				
	173	1	163.5	43.0	0.0	53.0	1	1.0	0.0	115.0	2	1.06	0.94				
	174	1	0.0	0.0	0.0	0.0	1	1.0	0.0	115.0	2	1.06	0.94				
	175	1	176.0	83.0	0.0	0.0	1	1.0	0.0	115.0	2	1.06	0.94				
	176	2	5.0	4.0	0.0	0.0	1	1.0	0.0	115.0	2	1.06	0.94				
	177	2	28.0	12.0	0.0	0.0	1	1.0	0.0	115.0	2	1.06	0.94				
	178	1	427.4	173.6	0.0	0.0	1	1.0	0.0	115.0	2	1.06	0.94				
	179	1	74.0	29.0	0.0	45.0	1	1.0	0.0	115.0	2	1.06	0.94				
	180	1	69.5	49.3	0.0	0.0	1	1.0	0.0	115.0	2	1.06	0.94				
	181	1	73.4	0.0	0.0	0.0	1	1.0	0.0	230.0	2	1.06	0.94				
	182	1	240.7	89.0	0.0	0.0	1	1.0	0.0	230.0	2	1.06	0.94				
	183	1	40.0	4.0	0.0	0.0	1	1.0	0.0	115.0	2	1.06	0.94				
	184	1	136.8	16.6	0.0	0.0	1	1.0	0.0	230.0	2	1.06	0.94				
	185	2	0.0	0.0	0.0	0.0	1	1.0	0.0	230.0	2	1.06	0.94				
	186	2	59.8	24.3	0.0	0.0	1	1.0	0.0	230.0	2	1.06	0.94				
	187	2	59.8	24.3	0.0	0.0	1	1.0	0.0	230.0	2	1.06	0.94				
	188	1	182.6	43.6	0.0	0.0	1	1.0	0.0	230.0	2	1.06	0.94				
	189	1	7.0	2.0	0.0	0.0	1	1.0	0.0	66.0	3	1.06	0.94				
	190	2	0.0	0.0	0.0	-150.0	1	1.0	0.0	345.0	3	1.06	0.94				
	191	2	489.0	53.0	0.0	0.0	1	1.0	0.0	230.0	3	1.06	0.94				
	192	1	800.0	72.0	0.0	0.0	1	1.0	0.0	230.0	3	1.06	0.94				
	193	1	0.0	0.0	0.0	0.0	1	1.0	0.0	66.0	3	1.06	0.94				
	194	1	0.0	0.0	0.0	0.0	1	1.0	0.0	345.0	3	1.06	0.94				
	195	1	0.0	0.0	0.0	0.0	1	1.0	0.0	345.0	3	1.06	0.94				
	196	1	10.0	3.0	0.0	0.0	1	1.0	0.0	115.0	3	1.06	0.94				
	197	1	43.0	14.0	0.0	0.0	1	1.0	0.0	115.0	3	1.06	0.94				
	198	2	64.0	21.0	0.0	0.0	1	1.0	0.0	115.0	3	1.06	0.94				
	199	1	35.0	12.0	0.0	0.0	1	1.0	0.0	115.0	3	1.06	0.94				
	200	1	27.0	12.0	0.0	0.0	1	1.0	0.0	115.0	3	1.06	0.94				
	201	1	41.0	14.0	0.0	0.0	1	1.0	0.0	66.0	1	1.06	0.94				
	202	1	38.0	13.0	0.0	0.0	1	1.0	0.0	66.0	3	1.06	0.94				
	203	1	42.0	14.0	0.0	0.0	1	1.0	0.0	115.0	3	1.06	0.94				
	204	1	72.0	24.0	0.0	0.0	1	1.0	0.0	66.0	3	1.06	0.94				
	205	1	0.0	-5.0	0.0	0.0	1	1.0	0.0	66.0	3	1.06	0.94				
	206	1	12.0	2.0	0.0	0.0	1	1.0	0.0	66.0	3	1.06	0.94				
	207	1	-21.0	-14.2	0.0	0.0	1	1.0	0.0	66.0	1	1.06	0.94				
	208	1	7.0	2.0	0.0	0.0	1	1.0	0.0	66.0	3	1.06	0.94				
	209	1	38.0	13.0	0.0	0.0	1	1.0	0.0	66.0	3	1.06	0.94				
	210	1	0.0	0.0	0.0	0.0	1	1.0	0.0	115.0	3	1.06	0.94				
	211	1	96.0	7.0	0.0	0.0	1	1.0	0.0	115.0	3	1.06	0.94				
	212	1	0.0	0.0	0.0	0.0	1	1.0	0.0	138.0	3	1.06	0.94				
	213	2	0.0	0.0	0.0	0.0	1	1.0	0.0	16.5	3	1.06	0.94				
	214	1	22.0	16.0	0.0	0.0	1	1.0	0.0	138.0	3	1.06	0.94				
	215	1	47.0	26.0	0.0	0.0	1	1.0	0.0	138.0	3	1.06	0.94				
	216	1	176.0	105.0	0.0	0.0	1	1.0	0.0	138.0	3	1.06	0.94				
	217	1	100.0	75.0	0.0	0.0	1	1.0	0.0	138.0	3	1.06	0.94				
	218	1	131.0	96.0	0.0	0.0	1	1.0	0.0	138.0	3	1.06	0.94				
	219	1	0.0	0.0	0.0	0.0	1	1.0	0.0	345.0	3	1.06	0.94				
	220	2	285.0	100.0	0.0	0.0	1	1.0	0.0	138.0	3	1.06	0.94				
	221	2	171.0	70.0	0.0	0.0	1	1.0	0.0	138.0	3	1.06	0.94				
	222	2	328.0	188.0	0.0	0.0	1	1.0	0.0	20.0	3	1.06	0.94				
	223	1	428.0	232.0	0.0	0.0	1	1.0	0.0	138.0	3	1.06	0.94				
	224	1	173.0	99.0	0.0	0.0	1	1.0	0.0	230.0	3	1.06	0.94				
	225	1	410.0	40.0	0.0	0.0	1	1.0	0.0	230.0	3	1.06	0.94				
	226	1	0.0	0.0	0.0	0.0	1	1.0	0.0	230.0	3	1.06	0.94				
	227	2	538.0	369.0	0.0	0.0	1	1.0	0.0	27.0	3	1.06	0.94				
	228	1	223.0	148.0	0.0	0.0	1	1.0	0.0	138.0	3	1.06	0.94				
	229	1	96.0	46.0	0.0	0.0	1	1.0	0.0	138.0	3	1.06	0.94				
	230	2	0.0	0.0	0.0	0.0	1	1.0	0.0	20.0	3	1.06	0.94				
	231	1	159.0	107.0	0.0	-300.0	1	1.0	0.0	345.0	3	1.06	0.94				
	232	1	448.0	143.0	0.0	0.0	1	1.0	0.0	138.0	3	1.06	0.94				
	233	2	404.0	212.0	0.0	0.0	1	1.0	0.0	66.0	3	1.06	0.94				
	234	1	572.0	244.0	0.0	0.0	1	1.0	0.0	138.0	3	1.06	0.94				
	235	1	269.0	157.0	0.0	0.0	1	1.0	0.0	138.0	3	1.06	0.94				
	236	2	0.0	0.0	0.0	0.0	1	1.0	0.0	20.0	3	1.06	0.94				
	237	1	0.0	0.0	0.0	0.0	1	1.0	0.0	345.0	3	1.06	0.94				
	238	2	255.0	149.0	0.0	-150.0	1	1.0	0.0	138.0	3	1.06	0.94				
	239	2	0.0	0.0	0.0	0.0	1	1.0	0.0	138.0	3	1.06	0.94				
	240	1	0.0	0.0	0.0	-140.0	1	1.0	0.0	230.0	3	1.06	0.94				
	241	2	0.0	0.0	0.0	0.0	1	1.0	0.0	20.0	3	1.06	0.94				
	242	2	0.0	0.0	0.0	0.0	1	1.0	0.0	138.0	3	1.06	0.94				
	243	2	8.0	3.0	0.0	0.0	1	1.0	0.0	66.0	3	1.06	0.94				
	244	1	0.0	0.0	0.0	0.0	1	1.0	0.0	66.0	3	1.06	0.94				
	245	1	61.0	30.0	0.0	0.0	1	1.0	0.0	66.0	3	1.06	0.94				
	246	1	77.0	33.0	0.0	0.0	1	1.0	0.0	66.0	3	1.06	0.94				
	247	1	61.0	30.0	0.0	0.0	1	1.0	0.0	66.0	3	1.06	0.94				
	248	1	29.0	14.0	0.0	45.6	1	1.0	0.0	66.0	3	1.06	0.94				
	249	1	29.0	14.0	0.0	0.0	1	1.0	0.0	66.0	3	1.06	0.94				
	250	1	-23.0	-17.0	0.0	0.0	1	1.0	0.0	66.0	3	1.06	0.94				
	281	1	-33.1	-29.4	0.0	0.0	1	1.0	0.0	230.0	3	1.06	0.94				
	319	1	115.8	-24.0	0.0	0.0	1	1.0	0.0	230.0	1	1.06	0.94				
	320	1	2.4	-12.6	0.0	0.0	1	1.0	0.0	115.0	1	1.06	0.94				
	322	1	2.4	-3.9	0.0	0.0	1	1.0	0.0	115.0	1	1.06	0.94				
	323	1	-14.9	26.5	0.0	0.0	1	1.0	0.0	230.0	1	1.06	0.94				
	324	1	24.7	-1.2	0.0	0.0	1	1.0	0.0	115.0	1	1.06	0.94				
	526	1	145.3	-34.9	0.0	0.0	1	1.0	0.0	115.0	1	1.06	0.94				
	528	1	28.1	-20.5	0.0	0.0	1	1.0	0.0	115.0	1	1.06	0.94				
	531	1	14.0	2.5	0.0	0.0	1	1.0	0.0	115.0	1	1.06	0.94				
	552	1	-11.1	-1.4	0.0	0.0	1	1.0	0.0	115.0	1	1.06	0.94				
	562	1	50.5	17.4	0.0	0.0	1	1.0	0.0	230.0	1	1.06	0.94				
	609	1	29.6	0.6	0.0	0.0	1	1.0	0.0	115.0	1	1.06	0.94				
	664	1	-113.7	76.7	0.0	0.0	1	1.0	0.0	345.0	3	1.06	0.94				
	1190	1	100.31	29.17	0.0	0.0	1	1.0	0.0	86.0	2	1.06	0.94				
	1200	1	-100.0	34.17	0.0	0.0	1	1.0	0.0	86.0	2	1.06	0.94				
	1201	1	0.0	0.0	0.0	0.0	1	1.0	0.0	115.0	2	1.06	0.94				
	2040	1	0.0	0.0	0.0	0.0	1	1.0	0.0	115.0	3	1.06	0.94				
	7001	2	0.0	0.0	0.0	0.0	1	1.0	0.0	13.8	1	1.06	0.94				
	7002	2	0.0	0.0	0.0	0.0	1	1.0	0.0	13.8	1	1.06	0.94				
	7003	2	0.0	0.0	0.0	0.0	1	1.0	0.0	13.8	1	1.06	0.94				
	7011	2	0.0	0.0	0.0	0.0	1	1.0	0.0	13.8	1	1.06	0.94				
	7012	2	0.0	0.0	0.0	0.0	1	1.0	0.0	13.8	1	1.06	0.94				
	7017	2	0.0	0.0	0.0	0.0	1	1.0	0.0	13.8	1	1.06	0.94				
	7023	2	0.0	0.0	0.0	0.0	1	1.0	0.0	13.8	1	1.06	0.94				
	7024	2	0.0	0.0	0.0	0.0	1	1.0	0.0	13.8	1	1.06	0.94				
	7039	2	0.0	0.0	0.0	0.0	1	1.0	0.0	20.0	1	1.06	0.94				
	7044	2	0.0	0.0	0.0	0.0	1	1.0	0.0	13.8	1	1.06	0.94				
	7049	3	0.0	0.0	0.0	0.0	1	1.0	0.0	13.8	1	1.06	0.94				
	7055	2	0.0	0.0	0.0	0.0	1	1.0	0.0	13.8	1	1.06	0.94				
	7057	2	0.0	0.0	0.0	0.0	1	1.0	0.0	13.8	1	1.06	0.94				
	7061	2	0.0	0.0	0.0	0.0	1	1.0	0.0	13.8	1	1.06	0.94				
	7062	2	0.0	0.0	0.0	0.0	1	1.0	0.0	13.8	1	1.06	0.94				
	7071	2	0.0	0.0	0.0	0.0	1	1.0	0.0	13.8	1	1.06	0.94				
	7130	2	0.0	0.0	0.0	0.0	1	1.0	0.0	13.8	2	1.06	0.94				
	7139	2	0.0	0.0	0.0	0.0	1	1.0	0.0	13.8	2	1.06	0.94				
	7166	2	0.0	0.0	0.0	0.0	1	1.0	0.0	13.8	2	1.06	0.94				
	9001	1	0.0	0.0	0.0	0.0	1	1.0	0.0	115.0	9	1.06	0.94				
	9002	2	4.2	0.0	0.0	0.0	1	1.0	0.0	6.6	9	1.06	0.94				
	9003	1	2.71	0.94	0.14	2.4	1	1.0	0.0	6.6	9	1.06	0.94				
	9004	1	0.86	0.28	0.0	0.0	1	1.0	0.0	6.6	9	1.06	0.94				
	9005	1	0.0	0.0	0.0	0.0	1	1.0	0.0	115.0	9	1.06	0.94				
	9006	1	0.0	0.0	0.0	0.0	1	1.0	0.0	6.6	9	1.06	0.94				
	9007	1	0.0	0.0	0.0	0.0	1	1.0	0.0	6.6	9	1.06	0.94				
	9012	1	0.0	0.0	0.0	0.0	1	1.0	0.0	6.6	9	1.06	0.94				
	9021	1	4.75	1.56	0.0	0.0	1	1.0	0.0	6.6	9	1.06	0.94				
	9022	1	1.53	0.53	0.08	0.0	1	1.0	0.0	0.6	9	1.06	0.94				
	9023	1	0.0	0.0	0.0	0.0	1	1.0	0.0	6.6	9	1.06	0.94				
	9024	1	1.35	0.47	0.07	0.0	1	1.0	0.0	0.6	9	1.06	0.94				
	9025	1	0.45	0.16	0.02	0.0	1	1.0	0.0	0.6	9	1.06	0.94				
	9026	1	0.45	0.16	0.02	0.0	1	1.0	0.0	0.6	9	1.06	0.94				
	9031	1	1.84	0.64	0.1	0.0	1	1.0	0.0	0.6	9	1.06	0.94				
	9032	1	1.39	0.48	0.07	0.0	1	1.0	0.0	0.6	9	1.06	0.94				
	9033	1	1.89	0.65	0.1	0.0	1	1.0	0.0	0.6	9	1.06	0.94				
	9034	1	1.55	0.54	0.08	1.72	1	1.0	0.0	0.6	9	1.06	0.94				
	9035	1	1.66	0.58	0.09	0.0	1	1.0	0.0	0.6	9	1.06	0.94				
	9036	1	3.03	1.0	0.0	0.0	1	1.0	0.0	2.3	9	1.06	0.94				
	9037	1	1.86	0.64	0.1	0.0	1	1.0	0.0	0.6	9	1.06	0.94				
	9038	1	2.58	0.89	0.14	0.0	1	1.0	0.0	0.6	9	1.06	0.94				
	9041	1	1.01	0.35	0.05	0.0	1	1.0	0.0	0.6	9	1.06	0.94				
	9042	1	0.81	0.28	0.04	0.0	1	1.0	0.0	0.6	9	1.06	0.94				
	9043	1	1.6	0.52	0.0	0.0	1	1.0	0.0	2.3	9	1.06	0.94				
	9044	1	0.0	0.0	0.0	0.0	1	1.0	0.0	6.6	9	1.06	0.94				
	9051	2	35.81	0.0	0.0	0.0	1	1.0	0.0	13.8	9	1.06	0.94				
	9052	1	30.0	23.0	0.0	0.0	1	1.0	0.0	13.8	9	1.06	0.94				
	9053	2	26.48	0.0	0.0	0.0	1	1.0	0.0	13.8	9	1.06	0.94				
	9054	2	0.0	0.0	0.0	0.0	1	1.0	0.0	13.8	9	1.06	0.94				
	9055	2	0.0	0.0	0.0	0.0	1	1.0	0.0	13.8	9	1.06	0.94				
	9071	1	1.02	0.35	0.05	0.0	1	1.0	0.0	0.6	9	1.06	0.94				
	9072	1	1.02	0.35	0.05	0.0	1	1.0	0.0	0.6	9	1.06	0.94				
	9121	1	3.8	1.25	0.0	0.0	1	1.0	0.0	6.6	9	1.06	0.94				
	9533	1	1.19	0.41	0.1	0.0	1	1.0	0.0	2.3	9	1.06	0.94				
];

%%	 generator data
%    bus    Pg    Qg    Qmax    Qmin    Vg    mBase    status    Pmax    Pmin    Pc1    Pc2    Qc1min    Qc1max    Qc2min    Qc2max    ramp_agc    ramp_10    ramp_30    ramp_q    apf
mpc.gen = [
	8	0.0	0.0	10.0	-10.0	1.0	100.0	1	0.0	0.0															
	10	0.0	0.0	20.0	-20.0	1.0	100.0	1	0.0	0.0															
	20	0.0	0.0	20.0	-20.0	1.0	100.0	1	0.0	0.0															
	63	0.0	0.0	25.0	-25.0	1.0	100.0	1	0.0	0.0															
	76	0.0	23.5	35.0	12.0	1.0	100.0	1	0.0	0.0															
	84	724.0	0.0	240.0	-240.0	1.0	100.0	1	1448.422	0.0															
	91	92.5	41.0	93.0	-11.0	1.0	100.0	1	185.044	0.0															
	92	180.0	0.0	153.0	-153.0	1.0	100.0	1	360.09	0.0															
	98	46.5	8.5	47.0	-30.0	1.0	100.0	1	93.024	0.0															
	108	98.5	26.5	77.0	-24.0	1.0	100.0	1	197.04	0.0															
	119	1020.5	260.5	1021.0	-500.0	1.0	100.0	1	2316.42	0.0															
	124	160.5	30.0	120.0	-60.0	1.0	100.0	1	1457.168	0.0															
	125	0.0	87.5	200.0	-25.0	1.0	100.0	1	0.0	0.0															
	138	0.0	112.5	350.0	-125.0	1.0	100.0	1	0.0	0.0															
	141	148.5	12.5	75.0	-50.0	1.0	100.0	1	297.078	0.0															
	143	400.0	100.0	300.0	-100.0	1.0	100.0	1	800.185	0.0															
	146	45.5	10.0	35.0	-15.0	1.0	100.0	1	91.067	0.0															
	147	160.0	25.0	100.0	-50.0	1.0	100.0	1	320.61	0.0															
	149	138.5	12.5	50.0	-25.0	1.0	100.0	1	277.371	0.0															
	152	303.0	62.5	175.0	-50.0	1.0	100.0	1	610.203	0.0															
	153	121.0	20.0	90.0	-50.0	1.0	100.0	1	242.45	0.0															
	156	0.0	2.5	15.0	-10.0	1.0	100.0	1	0.0	0.0															
	170	165.0	25.0	90.0	-40.0	1.0	100.0	1	330.202	0.0															
	171	0.0	50.0	150.0	-50.0	1.0	100.0	1	0.0	0.0															
	176	139.0	22.5	90.0	-45.0	1.0	100.0	1	278.08	0.0															
	177	62.5	10.0	35.0	-15.0	1.0	100.0	1	125.23	0.0															
	185	125.0	15.0	80.0	-50.0	1.0	100.0	1	251.882	0.0															
	186	1232.5	150.0	400.0	-100.0	1.0	100.0	1	2465.374	0.0															
	187	812.0	150.0	400.0	-100.0	1.0	100.0	1	1624.279	0.0															
	190	257.5	0.0	258.0	-258.0	1.0	100.0	1	515.086	0.0															
	191	1070.0	0.0	1000.0	-1000.0	1.0	100.0	1	2140.558	0.0															
	198	215.0	0.0	215.0	-215.0	1.0	100.0	1	430.078	0.0															
	213	144.0	0.0	144.0	-144.0	1.0	100.0	1	288.071	0.0															
	220	230.0	0.0	60.0	-60.0	1.0	100.0	1	460.082	0.0															
	221	277.0	0.0	277.0	-277.0	1.0	100.0	1	554.087	0.0															
	222	261.5	0.0	262.0	-262.0	1.0	100.0	1	523.112	0.0															
	227	218.0	0.0	218.0	-218.0	1.0	100.0	1	436.091	0.0															
	230	229.0	0.0	229.0	-229.0	1.0	100.0	1	458.101	0.0															
	233	170.5	0.0	171.0	-171.0	1.0	100.0	1	341.078	0.0															
	236	440.5	0.0	300.0	-300.0	1.0	100.0	1	881.131	0.0															
	238	133.5	0.0	134.0	-134.0	1.0	100.0	1	267.059	0.0															
	239	310.5	0.0	311.0	-311.0	1.0	100.0	1	621.106	0.0															
	241	563.5	0.0	564.0	-564.0	1.0	100.0	1	1127.148	0.0															
	242	106.0	70.0	100.0	40.0	1.0	100.0	1	212.051	0.0															
	243	171.0	60.0	80.0	40.0	1.0	100.0	1	342.096	0.0															
	7001	284.0	0.0	210.0	-210.0	1.0	100.0	1	568.148	0.0															
	7002	335.0	0.0	280.0	-280.0	1.0	100.0	1	670.17	0.0															
	7003	700.5	0.0	420.0	-420.0	1.0	100.0	1	1401.289	0.0															
	7011	334.0	0.0	100.0	-100.0	1.0	100.0	1	668.171	0.0															
	7012	313.0	0.0	224.0	-224.0	1.0	100.0	1	626.176	0.0															
	7017	245.0	122.5	245.0	0.0	1.0	100.0	1	490.12	0.0															
	7023	110.0	55.0	110.0	0.0	1.0	100.0	1	220.061	0.0															
	7024	271.5	0.0	224.0	-224.0	1.0	100.0	1	543.149	0.0															
	7039	290.0	0.0	200.0	-200.0	1.0	100.0	1	580.138	0.0															
	7044	66.0	21.0	42.0	0.0	1.0	100.0	1	132.041	0.0															
	7049	359.0	5.0	10.0	0.0	1.0	100.0	1	718.197	0.0															
	7055	79.0	12.5	25.0	0.0	1.0	100.0	1	158.05	0.0															
	7057	167.0	0.0	90.0	-90.0	1.0	100.0	1	334.1	0.0															
	7061	878.5	0.0	150.0	-150.0	1.0	100.0	1	1757.549	0.0															
	7062	284.0	75.0	150.0	0.0	1.0	100.0	1	568.166	0.0															
	7071	101.5	43.5	87.0	0.0	1.0	100.0	1	203.052	0.0															
	7130	863.0	250.0	600.0	-100.0	1.0	100.0	1	1726.491	0.0															
	7139	1012.5	100.0	325.0	-125.0	1.0	100.0	1	2025.605	0.0															
	7166	312.0	50.0	300.0	-200.0	1.0	100.0	1	625.387	0.0															
	9002	0.0	0.0	2.0	-2.0	1.0	100.0	1	0.0	0.0															
	9051	0.0	0.0	17.35	-17.35	1.0	100.0	1	0.0	0.0															
	9053	0.0	0.015	12.83	-12.8	1.0	100.0	1	0.0	0.0															
	9054	42.0	0.0	38.0	-38.0	1.0	100.0	1	84.025	0.0															
	9055	18.5	0.0	6.0	-6.0	1.0	100.0	1	37.012	0.0															
];

%%	 branch data
%    f_bus    t_bus    r    x    b    rateA    rateB    rateC    ratio    angle    status    angmin    angmax
mpc.branch = [
	37	9001	6.0e-5	0.00046	0.0	9900.0	63230.0	63230.0	1.0082	0.0	1	-30.0	30.0								
	9001	9005	0.0008	0.00348	0.0	8215.0	8215.0	8215.0	0	0	1	-30.0	30.0								
	9001	9006	0.02439	0.43682	0.0	68.0	68.0	68.0	0.9668	0.0	1	-30.0	30.0								
	9001	9012	0.03624	0.64898	0.0	46.0	46.0	46.0	0.9796	0.0	1	-30.0	30.0								
	9005	9051	0.01578	0.37486	0.0	79.0	79.0	79.0	1.0435	0.0	1	-30.0	30.0								
	9005	9052	0.01578	0.37486	0.0	79.0	79.0	79.0	0.9391	0.0	1	-30.0	30.0								
	9005	9053	0.01602	0.38046	0.0	78.0	78.0	78.0	1.0435	0.0	1	-30.0	30.0								
	9005	9054	0.0	0.152	0.0	193.063	193.0	193.0	1.0435	0.0	1	-30.0	30.0								
	9005	9055	0.0	0.8	0.0	37.012	37.0	37.0	1.0435	0.0	1	-30.0	30.0								
	9006	9007	0.05558	0.24666	0.0	117.0	117.0	117.0	0	0	1	-30.0	30.0								
	9006	9003	0.11118	0.49332	0.0	59.0	59.0	59.0	0	0	1	-30.0	30.0								
	9006	9003	0.11118	0.49332	0.0	59.0	59.0	59.0	0	0	1	-30.0	30.0								
	9012	9002	0.07622	0.43286	0.0	67.0	67.0	67.0	0	0	1	-30.0	30.0								
	9012	9002	0.07622	0.43286	0.0	67.0	67.0	67.0	0	0	1	-30.0	30.0								
	9002	9021	0.0537	0.07026	0.0	332.0	332.0	332.0	0	0	1	-30.0	30.0								
	9021	9023	1.1068	0.95278	0.0	21.0	21.0	21.0	0	0	1	-30.0	30.0								
	9021	9022	0.44364	2.8152	0.0	11.0	11.0	11.0	1.0	0.0	1	-30.0	30.0								
	9002	9024	0.50748	3.2202	0.0	9.0	9.0	9.0	1.0	0.0	1	-30.0	30.0								
	9023	9025	0.66688	3.944	0.0	8.0	8.0	8.0	1.0	0.0	1	-30.0	30.0								
	9023	9026	0.6113	3.6152	0.0	8.0	8.0	8.0	1.0	0.0	1	-30.0	30.0								
	9007	9071	0.4412	2.9668	0.0	10.0	10.0	10.0	1.0	0.0	1	-30.0	30.0								
	9007	9072	0.30792	2.057	0.0	15.0	15.0	15.0	1.0	0.0	1	-30.0	30.0								
	9007	9003	0.0558	0.24666	0.0	116.0	116.0	116.0	0	0	1	-30.0	30.0								
	9003	9031	0.73633	4.6724	0.0	7.0	7.0	7.0	1.0	0.0	1	-30.0	30.0								
	9003	9032	0.76978	4.8846	0.0	6.0	6.0	6.0	1.0	0.0	1	-30.0	30.0								
	9003	9033	0.75732	4.8056	0.0	7.0	7.0	7.0	1.0	0.0	1	-30.0	30.0								
	9003	9044	0.07378	0.06352	0.0	302.0	302.0	302.0	0	0	1	-30.0	30.0								
	9044	9004	0.03832	0.02894	0.0	611.0	611.0	611.0	0	0	1	-30.0	30.0								
	9004	9041	0.36614	2.456	0.0	12.0	12.0	12.0	1.0	0.0	1	-30.0	30.0								
	9004	9042	1.0593	5.4536	0.0	6.0	6.0	6.0	1.0	0.0	1	-30.0	30.0								
	9004	9043	0.1567	1.6994	0.0	18.0	18.0	18.0	1.0	0.0	1	-30.0	30.0								
	9003	9034	0.13006	1.3912	0.0	21.0	21.0	21.0	1.0	0.0	1	-30.0	30.0								
	9003	9035	0.54484	3.4572	0.0	9.0	9.0	9.0	1.0	0.0	1	-30.0	30.0								
	9003	9036	0.15426	1.6729	0.0	18.0	18.0	18.0	1.0	0.0	1	-30.0	30.0								
	9003	9037	0.3849	2.5712	0.0	12.0	12.0	12.0	1.0	0.0	1	-30.0	30.0								
	9003	9038	0.4412	2.9668	0.0	10.0	10.0	10.0	1.0	0.0	1	-30.0	30.0								
	9012	9121	0.23552	0.99036	0.0	29.0	29.0	29.0	0	0	1	-30.0	30.0								
	9053	9533	0.0	0.75	0.0	40.0	40.0	40.0	0.9583	0.0	1	-30.0	30.0								
	1	5	0.001	0.006	0.0	4824.612	4823.0	4823.0	0	0	1	-30.0	30.0								
	2	6	0.001	0.009	0.0	3241.088	3240.0	3240.0	0	0	1	-30.0	30.0								
	2	8	0.006	0.027	0.054	1061.295	1061.0	1061.0	0	0	1	-30.0	30.0								
	3	7	0.0	0.003	0.0	9780.786	9778.0	9778.0	0	0	1	-30.0	30.0								
	3	19	0.008	0.069	0.139	423.114	423.0	423.0	0	0	1	-30.0	30.0								
	3	150	0.001	0.007	0.0	4150.184	4149.0	4149.0	0	0	1	-30.0	30.0								
	4	16	0.002	0.019	1.127	1536.414	1536.0	1536.0	0	0	1	-30.0	30.0								
	5	9	0.006	0.029	0.018	991.283	991.0	991.0	0	0	1	-30.0	30.0								
	7	12	0.001	0.009	0.07	3240.922	3240.0	3240.0	0	0	1	-30.0	30.0								
	7	131	0.001	0.007	0.014	4150.184	4149.0	4149.0	0	0	1	-30.0	30.0								
	8	11	0.013	0.0595	0.033	482.137	482.0	482.0	0	0	1	-30.0	30.0								
	8	14	0.013	0.042	0.081	668.179	668.0	668.0	0	0	1	-30.0	30.0								
	9	11	0.006	0.027	0.013	1061.303	1061.0	1061.0	0	0	1	-30.0	30.0								
	11	13	0.008	0.034	0.018	840.234	840.0	840.0	0	0	1	-30.0	30.0								
	12	21	0.002	0.015	0.118	1939.539	1939.0	1939.0	0	0	1	-30.0	30.0								
	13	20	0.006	0.034	0.016	850.24	850.0	850.0	0	0	1	-30.0	30.0								
	14	15	0.014	0.042	0.097	663.188	663.0	663.0	0	0	1	-30.0	30.0								
	15	37	0.065	0.248	0.121	115.033	115.0	115.0	0	0	1	-30.0	30.0								
	15	89	0.099	0.248	0.035	110.032	110.0	110.0	0	0	1	-30.0	30.0								
	15	90	0.096	0.363	0.048	79.023	79.0	79.0	0	0	1	-30.0	30.0								
	16	42	0.002	0.022	1.28	1328.374	1328.0	1328.0	0	0	1	-30.0	30.0								
	19	21	0.002	0.018	0.036	1620.463	1620.0	1620.0	0	0	1	-30.0	30.0								
	19	87	0.013	0.08	0.151	362.093	362.0	362.0	0	0	1	-30.0	30.0								
	20	22	0.016	0.033	0.015	800.229	800.0	800.0	0	0	1	-30.0	30.0								
	20	27	0.069	0.186	0.098	148.042	148.0	148.0	0	0	1	-30.0	30.0								
	21	24	0.004	0.034	0.28	857.243	857.0	857.0	0	0	1	-30.0	30.0								
	22	23	0.052	0.111	0.05	240.067	240.0	240.0	0	0	1	-30.0	30.0								
	23	25	0.019	0.039	0.018	677.243	677.0	677.0	0	0	1	-30.0	30.0								
	24	319	0.007	0.068	0.134	430.0	430.0	430.0	0	0	1	-30.0	30.0								
	25	26	0.036	0.071	0.034	369.121	369.0	369.0	0	0	1	-30.0	30.0								
	26	27	0.045	0.12	0.065	229.066	229.0	229.0	0	0	1	-30.0	30.0								
	26	320	0.043	0.13	0.014	215.0	215.0	215.0	0	0	1	-30.0	30.0								
	33	34	0.0	0.063	0.0	466.13	466.0	466.0	1.0	0.0	1	-30.0	30.0								
	33	38	0.0025	0.012	0.013	2393.682	2393.0	2393.0	0	0	1	-30.0	30.0								
	33	40	0.006	0.029	0.02	991.283	991.0	991.0	0	0	1	-30.0	30.0								
	33	41	0.007	0.043	0.026	674.192	674.0	674.0	0	0	1	-30.0	30.0								
	34	42	0.001	0.008	0.042	3639.0	3639.0	3639.0	0	0	1	-30.0	30.0								
	35	72	0.012	0.06	0.008	480.137	480.0	480.0	0	0	1	-30.0	30.0								
	35	76	0.006	0.014	0.002	1926.549	1926.0	1926.0	0	0	1	-30.0	30.0								
	35	77	0.01	0.029	0.003	957.272	957.0	957.0	0	0	1	-30.0	30.0								
	36	88	0.004	0.027	0.043	1075.307	1075.0	1075.0	0	0	1	-30.0	30.0								
	37	38	0.008	0.047	0.008	616.176	616.0	616.0	0	0	1	-30.0	30.0								
	37	40	0.022	0.064	0.007	434.124	434.0	434.0	0	0	1	-30.0	30.0								
	37	41	0.01	0.036	0.02	786.224	786.0	786.0	0	0	1	-30.0	30.0								
	37	49	0.017	0.081	0.048	355.091	355.0	355.0	0	0	1	-30.0	30.0								
	37	89	0.102	0.254	0.033	108.031	108.0	108.0	0	0	1	-30.0	30.0								
	37	90	0.047	0.127	0.016	217.062	217.0	217.0	0	0	1	-30.0	30.0								
	38	41	0.008	0.037	0.02	775.22	775.0	775.0	0	0	1	-30.0	30.0								
	38	43	0.032	0.087	0.04	317.09	317.0	317.0	0	0	1	-30.0	30.0								
	39	42	0.0006	0.0064	0.404	4564.0	4564.0	4564.0	0	0	1	-30.0	30.0								
	40	48	0.026	0.154	0.022	188.053	188.0	188.0	0	0	1	-30.0	30.0								
	41	42	0.0	0.029	0.0	1012.284	1012.0	1012.0	1.0	0.0	1	-30.0	30.0								
	41	49	0.065	0.191	0.02	146.04	146.0	146.0	0	0	1	-30.0	30.0								
	41	51	0.031	0.089	0.036	312.089	312.0	312.0	0	0	1	-30.0	30.0								
	42	46	0.002	0.014	0.806	2075.587	2075.0	2075.0	0	0	1	-30.0	30.0								
	43	44	0.026	0.072	0.035	384.11	384.0	384.0	0	0	1	-30.0	30.0								
	43	48	0.095	0.262	0.032	106.031	106.0	106.0	0	0	1	-30.0	30.0								
	43	53	0.013	0.039	0.016	714.204	714.0	714.0	0	0	1	-30.0	30.0								
	44	47	0.027	0.084	0.039	333.093	333.0	333.0	0	0	1	-30.0	30.0								
	44	54	0.028	0.084	0.037	332.095	332.0	332.0	0	0	1	-30.0	30.0								
	45	60	0.007	0.041	0.312	706.194	706.0	706.0	0	0	1	-30.0	30.0								
	45	74	0.009	0.054	0.411	536.15	536.0	536.0	0	0	1	-30.0	30.0								
	46	81	0.005	0.042	0.69	694.195	694.0	694.0	0	0	1	-30.0	30.0								
	47	73	0.052	0.145	0.073	191.055	191.0	191.0	0	0	1	-30.0	30.0								
	47	113	0.043	0.118	0.013	234.066	234.0	234.0	0	0	1	-30.0	30.0								
	48	107	0.025	0.062	0.007	439.126	439.0	439.0	0	0	1	-30.0	30.0								
	49	51	0.031	0.094	0.043	297.083	297.0	297.0	0	0	1	-30.0	30.0								
	51	52	0.037	0.109	0.049	255.073	255.0	255.0	0	0	1	-30.0	30.0								
	52	55	0.027	0.08	0.036	348.1	348.0	348.0	0	0	1	-30.0	30.0								
	53	54	0.025	0.073	0.035	381.109	381.0	381.0	0	0	1	-30.0	30.0								
	54	55	0.035	0.103	0.047	270.076	270.0	270.0	0	0	1	-30.0	30.0								
	55	57	0.065	0.169	0.082	162.044	162.0	162.0	0	0	1	-30.0	30.0								
	57	58	0.046	0.08	0.036	318.09	318.0	318.0	0	0	1	-30.0	30.0								
	57	63	0.159	0.537	0.071	215.301	53.0	53.0	0	0	1	-30.0	72.05109								
	58	59	0.009	0.026	0.005	1067.364	1067.0	1067.0	0	0	1	-30.0	30.0								
	59	61	0.002	0.013	0.015	2231.0	2231.0	2231.0	0	0	1	-30.0	30.0								
	60	62	0.009	0.065	0.485	447.114	447.0	447.0	0	0	1	-30.0	30.0								
	62	64	0.016	0.105	0.203	277.067	277.0	277.0	0	0	1	-30.0	30.0								
	62	144	0.001	0.007	0.013	4149.0	4149.0	4149.0	0	0	1	-30.0	30.0								
	63	526	0.0265	0.172	0.026	169.0	169.0	169.0	0	0	1	-30.0	30.0								
	69	211	0.051	0.232	0.028	124.036	124.0	124.0	0	0	1	-30.0	30.0								
	69	79	0.051	0.157	0.023	178.05	178.0	178.0	0	0	1	-30.0	30.0								
	70	71	0.032	0.1	0.062	280.0	280.0	280.0	0	0	1	-30.0	30.0								
	70	528	0.02	0.1234	0.028	235.0	235.0	235.0	0	0	1	-30.0	30.0								
	71	72	0.036	0.131	0.068	216.061	216.0	216.0	0	0	1	-30.0	30.0								
	71	73	0.034	0.099	0.047	281.08	281.0	281.0	0	0	1	-30.0	30.0								
	72	77	0.018	0.087	0.011	331.093	331.0	331.0	0	0	1	-30.0	30.0								
	72	531	0.0256	0.193	0.0	151.0	151.0	151.0	0	0	1	-30.0	30.0								
	73	76	0.021	0.057	0.03	483.138	483.0	483.0	0	0	1	-30.0	30.0								
	73	79	0.018	0.052	0.018	534.151	534.0	534.0	0	0	1	-30.0	30.0								
	74	88	0.004	0.027	0.05	1075.306	1075.0	1075.0	0	0	1	-30.0	30.0								
	74	562	0.0286	0.2013	0.379	145.0	145.0	145.0	0	0	1	-30.0	30.0								
	76	77	0.016	0.043	0.004	640.181	640.0	640.0	0	0	1	-30.0	30.0								
	77	78	0.001	0.006	0.007	4824.603	4823.0	4823.0	0	0	1	-30.0	30.0								
	77	80	0.014	0.07	0.038	411.117	411.0	411.0	0	0	1	-30.0	30.0								
	77	552	0.0891	0.2676	0.029	104.0	104.0	104.0	0	0	1	-30.0	30.0								
	77	609	0.0782	0.2127	0.022	130.0	130.0	130.0	0	0	1	-30.0	30.0								
	78	79	0.006	0.022	0.011	1287.365	1287.0	1287.0	0	0	1	-30.0	30.0								
	78	84	0.0	0.036	0.0	815.151	815.0	815.0	0	0	1	-30.0	30.0								
	79	211	0.099	0.375	0.051	76.022	76.0	76.0	0	0	1	-30.0	30.0								
	80	211	0.022	0.107	0.058	269.077	269.0	269.0	0	0	1	-30.0	30.0								
	81	194	0.0035	0.033	0.53	884.252	884.0	884.0	0	0	1	-30.0	30.0								
	81	195	0.0035	0.033	0.53	884.252	884.0	884.0	0	0	1	-30.0	30.0								
	85	86	0.008	0.064	0.128	455.129	455.0	455.0	0	0	1	-30.0	30.0								
	86	87	0.012	0.093	0.183	313.086	313.0	313.0	0	0	1	-30.0	30.0								
	86	323	0.006	0.048	0.092	607.0	607.0	607.0	0	0	1	-30.0	30.0								
	89	91	0.047	0.119	0.014	230.066	230.0	230.0	0	0	1	-30.0	30.0								
	90	92	0.032	0.174	0.024	166.047	166.0	166.0	0	0	1	-30.0	30.0								
	91	94	0.1	0.253	0.031	108.031	108.0	108.0	0	0	1	-30.0	30.0								
	91	97	0.022	0.077	0.039	367.103	367.0	367.0	0	0	1	-30.0	30.0								
	92	103	0.019	0.144	0.017	202.056	202.0	202.0	0	0	1	-30.0	30.0								
	92	105	0.017	0.092	0.012	314.086	314.0	314.0	0	0	1	-30.0	30.0								
	94	97	0.278	0.427	0.043	58.017	58.0	58.0	0	0	1	-30.0	30.0								
	97	100	0.022	0.053	0.007	512.146	512.0	512.0	0	0	1	-30.0	30.0								
	97	102	0.038	0.092	0.012	295.084	295.0	295.0	0	0	1	-30.0	30.0								
	97	103	0.048	0.122	0.015	224.064	224.0	224.0	0	0	1	-30.0	30.0								
	98	100	0.024	0.064	0.007	430.123	430.0	430.0	0	0	1	-30.0	30.0								
	98	102	0.034	0.121	0.015	234.067	234.0	234.0	0	0	1	-30.0	30.0								
	99	107	0.053	0.135	0.017	203.057	203.0	203.0	0	0	1	-30.0	30.0								
	99	108	0.002	0.004	0.002	6559.0	6559.0	6559.0	0	0	1	-30.0	30.0								
	99	109	0.045	0.354	0.044	83.024	83.0	83.0	0	0	1	-30.0	30.0								
	99	110	0.05	0.174	0.022	163.046	163.0	163.0	0	0	1	-30.0	30.0								
	100	102	0.016	0.038	0.004	712.203	712.0	712.0	0	0	1	-30.0	30.0								
	102	104	0.043	0.064	0.027	381.109	381.0	381.0	0	0	1	-30.0	30.0								
	103	105	0.019	0.062	0.008	453.13	453.0	453.0	0	0	1	-30.0	30.0								
	104	108	0.076	0.13	0.044	195.056	195.0	195.0	0	0	1	-30.0	30.0								
	104	322	0.044	0.124	0.015	223.0	223.0	223.0	0	0	1	-30.0	30.0								
	105	107	0.012	0.088	0.011	331.094	331.0	331.0	0	0	1	-30.0	30.0								
	105	110	0.157	0.4	0.047	69.017	69.0	69.0	0	0	1	-30.0	30.0								
	108	324	0.074	0.208	0.026	133.0	133.0	133.0	0	0	1	-30.0	30.0								
	109	110	0.07	0.184	0.021	149.043	149.0	149.0	0	0	1	-30.0	30.0								
	109	113	0.1	0.274	0.031	101.029	101.0	101.0	0	0	1	-30.0	30.0								
	109	114	0.109	0.393	0.036	72.021	72.0	72.0	0	0	1	-30.0	30.0								
	110	112	0.142	0.404	0.05	69.02	69.0	69.0	0	0	1	-30.0	30.0								
	112	114	0.017	0.042	0.006	648.0	648.0	648.0	0	0	1	-30.0	30.0								
	115	122	0.0036	0.0199	0.004	1451.415	1451.0	1451.0	0	0	1	-30.0	30.0								
	116	120	0.002	0.1049	0.001	589.419	280.0	280.0	0	0	1	-30.0	35.43909								
	117	118	0.0001	0.0018	0.017	9900.0	16271.0	16271.0	0	0	1	-30.0	30.0								
	118	119	0.0	0.0271	0.0	1083.275	1083.0	1083.0	0	0	1	-30.0	30.0								
	118	1201	0.0	0.6163	0.0	87.582	48.0	48.0	0	0	1	-30.0	30.92647								
	1201	120	0.0	-0.3697	0.0	87.582	80.0	80.0	0	0	1	-30.0	30.0								
	118	121	0.0022	0.2915	0.0	101.024	101.0	101.0	0	0	1	-30.0	30.0								
	119	120	0.0	0.0339	0.0	866.224	866.0	866.0	0	0	1	-30.0	30.0								
	119	121	0.0	0.0582	0.0	716.866	504.0	504.0	0	0	1	-30.0	30.0								
	122	123	0.0808	0.2344	0.029	119.033	119.0	119.0	0	0	1	-30.0	30.0								
	122	125	0.0965	0.3669	0.054	144.446	78.0	78.0	0	0	1	-30.0	32.46601								
	123	124	0.036	0.1076	0.117	454.607	259.0	259.0	0	0	1	-31.16425	30.0								
	123	125	0.0476	0.1414	0.149	370.355	197.0	197.0	0	0	1	-30.0	33.40509								
	125	126	0.0006	0.0197	0.0	1489.476	1489.0	1489.0	0	0	1	-30.0	30.0								
	126	127	0.0059	0.0405	0.25	717.204	717.0	717.0	1.0	0.0	1	-30.0	30.0								
	126	129	0.0115	0.1106	0.185	288.318	264.0	264.0	1.0	0.0	1	-30.0	30.0								
	126	132	0.0198	0.1688	0.321	174.58	173.0	173.0	1.0	0.0	1	-30.0	30.0								
	126	157	0.005	0.05	0.33	584.154	584.0	584.0	1.0	0.0	1	-30.0	30.0								
	126	158	0.0077	0.0538	0.335	628.186	540.0	540.0	1.0	0.0	1	-30.0	30.0								
	126	169	0.0165	0.1157	0.171	251.069	251.0	251.0	1.0	0.0	1	-30.0	30.0								
	127	128	0.0059	0.0577	0.095	506.14	506.0	506.0	0	0	1	-30.0	30.0								
	127	134	0.0049	0.0336	0.208	864.246	864.0	864.0	0	0	1	-30.0	30.0								
	127	168	0.0059	0.0577	0.095	506.14	506.0	506.0	0	0	1	-30.0	30.0								
	128	130	0.0078	0.0773	0.126	378.107	378.0	378.0	0	0	1	-30.0	30.0								
	128	133	0.0026	0.0193	0.03	1507.43	1507.0	1507.0	0	0	1	-30.0	30.0								
	129	130	0.0076	0.0752	0.122	389.11	389.0	389.0	0	0	1	-30.0	30.0								
	129	133	0.0021	0.0186	0.03	1568.448	1568.0	1568.0	0	0	1	-30.0	30.0								
	130	132	0.0016	0.0164	0.026	1781.508	1781.0	1781.0	0	0	1	-30.0	30.0								
	130	151	0.0017	0.0165	0.026	1769.505	1769.0	1769.0	0	0	1	-30.0	30.0								
	130	167	0.0079	0.0793	0.127	369.099	369.0	369.0	0	0	1	-30.0	30.0								
	130	168	0.0078	0.0784	0.125	373.105	373.0	373.0	0	0	1	-30.0	30.0								
	133	137	0.0017	0.0117	0.289	2481.644	2481.0	2481.0	0	0	1	-30.0	30.0								
	133	168	0.0026	0.0193	0.03	1507.43	1507.0	1507.0	0	0	1	-30.0	30.0								
	133	169	0.0021	0.0186	0.03	1568.446	1568.0	1568.0	0	0	1	-30.0	30.0								
	133	171	0.0002	0.0101	0.0	2904.0	2904.0	2904.0	1.0	0.0	1	-30.0	30.0								
	134	135	0.0043	0.0293	0.18	991.283	991.0	991.0	0	0	1	-30.0	30.0								
	134	184	0.0039	0.0381	0.258	766.259	766.0	766.0	0	0	1	-30.0	30.0								
	135	136	0.0091	0.0623	0.385	466.117	466.0	466.0	0	0	1	-30.0	30.0								
	136	137	0.0125	0.089	0.54	327.093	327.0	327.0	0	0	1	-30.0	30.0								
	136	152	0.0056	0.039	0.953	745.203	745.0	745.0	0	0	1	-30.0	30.0								
	137	140	0.0015	0.0114	0.284	2551.715	2551.0	2551.0	0	0	1	-30.0	30.0								
	137	181	0.0005	0.0034	0.021	8538.438	8536.0	8536.0	0	0	1	-30.0	30.0								
	137	186	0.0007	0.0151	0.126	1941.504	1941.0	1941.0	0	0	1	-30.0	30.0								
	137	188	0.0005	0.0034	0.021	8538.424	8536.0	8536.0	0	0	1	-30.0	30.0								
	139	172	0.0562	0.2248	0.081	127.034	127.0	127.0	0	0	1	-30.0	30.0								
	140	141	0.012	0.0836	0.123	348.099	348.0	348.0	0	0	1	-30.0	30.0								
	140	142	0.0152	0.1132	0.684	257.07	257.0	257.0	0	0	1	-30.0	30.0								
	140	145	0.0468	0.3369	0.519	87.025	87.0	87.0	0	0	1	-30.0	30.0								
	140	146	0.043	0.3031	0.463	96.028	96.0	96.0	0	0	1	-30.0	30.0								
	140	147	0.0489	0.3492	0.538	84.024	84.0	84.0	0	0	1	-30.0	30.0								
	140	182	0.0013	0.0089	0.119	3263.102	3262.0	3262.0	0	0	1	-30.0	30.0								
	141	146	0.0291	0.2267	0.342	129.037	129.0	129.0	0	0	1	-30.0	30.0								
	142	143	0.006	0.057	0.767	512.141	512.0	512.0	0	0	1	-30.0	30.0								
	143	145	0.0075	0.0773	0.119	378.106	378.0	378.0	0	0	1	-30.0	30.0								
	143	149	0.0127	0.0909	0.135	320.091	320.0	320.0	0	0	1	-30.0	30.0								
	145	146	0.0085	0.0588	0.087	494.135	494.0	494.0	0	0	1	-30.0	30.0								
	145	149	0.0218	0.1511	0.223	193.051	193.0	193.0	0	0	1	-30.0	30.0								
	146	147	0.0073	0.0504	0.074	576.186	576.0	576.0	0	0	1	-30.0	30.0								
	148	178	0.0523	0.1526	0.074	182.046	182.0	182.0	1.0	0.0	1	-30.0	30.0								
	148	179	0.1371	0.3919	0.076	72.856	71.0	71.0	1.0	0.0	1	-30.0	30.0								
	152	153	0.0137	0.0957	0.141	304.085	304.0	304.0	0	0	1	-30.0	30.0								
	153	161	0.0055	0.0288	0.19	1001.285	1001.0	1001.0	0	0	1	-30.0	30.0								
	154	156	0.1746	0.3161	0.04	110.001	82.0	82.0	0	0	1	-30.0	30.0								
	154	183	0.0804	0.3054	0.045	145.001	93.0	93.0	0	0	1	-30.0	30.0								
	155	161	0.011	0.0568	0.388	507.144	507.0	507.0	0	0	1	-30.0	30.0								
	157	159	0.0008	0.0098	0.069	2984.845	2984.0	2984.0	0	0	1	-30.0	30.0								
	158	159	0.0029	0.0285	0.19	1024.292	1024.0	1024.0	0	0	1	-30.0	30.0								
	158	160	0.0066	0.0448	0.277	648.173	648.0	648.0	0	0	1	-30.0	30.0								
	162	164	0.0024	0.0326	0.236	898.293	898.0	898.0	0	0	1	-30.0	30.0								
	162	165	0.0018	0.0245	1.662	1195.387	1195.0	1195.0	0	0	1	-30.0	30.0								
	163	164	0.0044	0.0514	3.597	569.162	569.0	569.0	0	0	1	-30.0	30.0								
	165	166	0.0002	0.0123	0.0	2385.791	2385.0	2385.0	0	0	1	-30.0	30.0								
	167	169	0.0018	0.0178	0.029	1640.545	1640.0	1640.0	0	0	1	-30.0	30.0								
	172	173	0.0669	0.4843	0.063	60.604	60.0	60.0	0	0	1	-30.0	30.0								
	172	174	0.0558	0.221	0.031	129.037	129.0	129.0	0	0	1	-30.0	30.0								
	173	174	0.0807	0.3331	0.049	88.073	86.0	86.0	0	0	1	-30.0	30.0								
	173	175	0.0739	0.3071	0.043	93.026	93.0	93.0	0	0	1	-30.0	30.0								
	173	176	0.1799	0.5017	0.069	56.013	56.0	56.0	0	0	1	-30.0	30.0								
	175	176	0.0904	0.3626	0.048	81.902	79.0	79.0	0	0	1	-30.0	30.0								
	175	179	0.077	0.3092	0.054	93.027	93.0	93.0	0	0	1	-30.0	30.0								
	176	177	0.0251	0.0829	0.047	339.096	339.0	339.0	0	0	1	-30.0	30.0								
	177	178	0.0222	0.0847	0.05	335.092	335.0	335.0	0	0	1	-30.0	30.0								
	178	179	0.0498	0.1855	0.029	153.044	153.0	153.0	0	0	1	-30.0	30.0								
	178	180	0.0061	0.029	0.084	990.275	990.0	990.0	0	0	1	-30.0	30.0								
	181	138	0.0004	0.0202	0.0	1452.399	1452.0	1452.0	0	0	1	-30.0	30.0								
	181	187	0.0004	0.0083	0.115	3530.99	3530.0	3530.0	0	0	1	-30.0	30.0								
	184	185	0.0025	0.0245	0.164	1192.394	1192.0	1192.0	0	0	1	-30.0	30.0								
	186	188	0.0007	0.0086	0.115	3400.924	3400.0	3400.0	0	0	1	-30.0	30.0								
	187	188	0.0007	0.0086	0.115	3400.964	3400.0	3400.0	0	0	1	-30.0	30.0								
	188	138	0.0004	0.0202	0.0	1452.389	1452.0	1452.0	0	0	1	-30.0	30.0								
	189	208	0.033	0.095	0.0	292.084	292.0	292.0	0	0	1	-30.0	30.0								
	189	209	0.046	0.069	0.0	354.102	354.0	354.0	0	0	1	-30.0	30.0								
	190	231	0.0004	0.0022	6.2	9903.315	13118.0	13118.0	0	0	1	-30.0	30.0								
	190	240	0.0	0.0275	0.0	1067.0	1067.0	1067.0	1.0	0.0	1	-30.0	30.0								
	191	192	0.003	0.048	0.0	800.001	610.0	610.0	0	0	1	-30.0	30.0								
	192	225	0.002	0.009	0.0	3182.0	3182.0	3182.0	0	0	1	-30.0	30.0								
	193	205	0.045	0.063	0.0	379.108	379.0	379.0	0	0	1	-30.0	30.0								
	193	208	0.048	0.127	0.0	217.062	217.0	217.0	0	0	1	-30.0	30.0								
	194	219	0.0031	0.0286	0.5	1020.291	1020.0	1020.0	0	0	1	-30.0	30.0								
	194	664	0.0024	0.0355	0.36	825.0	825.0	825.0	0	0	1	-30.0	30.0								
	195	219	0.0031	0.0286	0.5	1020.291	1020.0	1020.0	0	0	1	-30.0	30.0								
	196	197	0.014	0.04	0.004	693.197	693.0	693.0	0	0	1	-30.0	30.0								
	196	210	0.03	0.081	0.01	340.097	340.0	340.0	0	0	1	-30.0	30.0								
	197	198	0.01	0.06	0.009	483.137	483.0	483.0	0	0	1	-30.0	30.0								
	197	211	0.015	0.04	0.006	687.196	687.0	687.0	0	0	1	-30.0	30.0								
	198	202	0.332	0.688	0.0	39.011	39.0	39.0	1.0	0.0	1	-30.0	30.0								
	198	203	0.009	0.046	0.025	626.179	626.0	626.0	0	0	1	-30.0	30.0								
	198	210	0.02	0.073	0.008	388.109	388.0	388.0	0	0	1	-30.0	30.0								
	198	211	0.034	0.109	0.032	257.073	257.0	257.0	0	0	1	-30.0	30.0								
	199	200	0.076	0.135	0.009	190.055	190.0	190.0	0	0	1	-30.0	30.0								
	199	210	0.04	0.102	0.005	268.096	268.0	268.0	0	0	1	-30.0	30.0								
	200	210	0.081	0.128	0.014	194.056	194.0	194.0	0	0	1	-30.0	30.0								
	201	204	0.124	0.183	0.0	133.038	133.0	133.0	0	0	1	-30.0	30.0								
	203	211	0.01	0.059	0.008	491.141	491.0	491.0	0	0	1	-30.0	30.0								
	204	205	0.046	0.068	0.0	358.103	358.0	358.0	0	0	1	-30.0	30.0								
	205	206	0.302	0.446	0.0	55.016	55.0	55.0	0	0	1	-30.0	30.0								
	206	207	0.073	0.093	0.0	249.072	249.0	249.0	0	0	1	-30.0	30.0								
	206	208	0.24	0.421	0.0	61.018	61.0	61.0	0	0	1	-30.0	30.0								
	212	215	0.0139	0.0778	0.086	372.106	372.0	372.0	0	0	1	-30.0	30.0								
	213	214	0.0025	0.038	0.0	771.248	771.0	771.0	1.0	0.0	1	-30.0	30.0								
	214	215	0.0017	0.0185	0.02	1579.448	1579.0	1579.0	0	0	1	-30.0	30.0								
	214	242	0.0015	0.0108	0.002	2691.77	2691.0	2691.0	0	0	1	-30.0	30.0								
	215	216	0.0045	0.0249	0.026	1160.33	1160.0	1160.0	0	0	1	-30.0	30.0								
	216	217	0.004	0.0497	0.018	589.168	589.0	589.0	0	0	1	-30.0	30.0								
	217	218	0.0	0.0456	0.0	644.184	644.0	644.0	0	0	1	-30.0	30.0								
	217	219	0.0005	0.0177	0.02	1657.472	1657.0	1657.0	1.0	0.0	1	-30.0	30.0								
	217	220	0.0027	0.0395	0.832	741.212	741.0	741.0	0	0	1	-30.0	30.0								
	219	237	0.0003	0.0018	5.2	9902.823	16074.0	16074.0	0	0	1	-30.0	30.0								
	220	218	0.0037	0.0484	0.43	605.173	605.0	605.0	0	0	1	-30.0	30.0								
	220	221	0.001	0.0295	0.503	994.274	994.0	994.0	0	0	1	-30.0	30.0								
	220	238	0.0016	0.0046	0.402	6025.017	6023.0	6023.0	0	0	1	-30.0	30.0								
	221	223	0.0003	0.0013	1.0	9900.0	21986.0	21986.0	0	0	1	-30.0	30.0								
	222	237	0.0014	0.0514	0.33	571.19	571.0	571.0	1.0	0.0	1	-30.0	30.0								
	224	225	0.01	0.064	0.48	1699.001	453.0	453.0	0	0	1	-30.0	63.82227								
	224	226	0.0019	0.0081	0.86	3527.003	3526.0	3526.0	0	0	1	-30.0	30.0								
	225	191	0.001	0.061	0.0	481.116	481.0	481.0	0	0	1	-30.0	30.0								
	226	231	0.0005	0.0212	0.0	1384.376	1384.0	1384.0	1.0	0.0	1	-30.0	30.0								
	227	231	0.0009	0.0472	0.186	622.218	622.0	622.0	1.0	0.0	1	-30.0	30.0								
	228	229	0.0019	0.0087	1.28	3295.101	3294.0	3294.0	0	0	1	-30.0	30.0								
	228	231	0.0026	0.0917	0.0	320.092	320.0	320.0	1.0	0.0	1	-30.0	30.0								
	228	234	0.0013	0.0288	0.81	1018.29	1018.0	1018.0	0	0	1	-30.0	30.0								
	229	190	0.0	0.0626	0.0	469.134	469.0	469.0	1.0	0.0	1	-30.0	30.0								
	231	232	0.0002	0.0069	1.364	4250.0	4250.0	4250.0	1.0	0.0	1	-30.0	30.0								
	231	237	0.0001	0.0006	3.57	9902.826	48222.0	48222.0	0	0	1	-30.0	30.0								
	232	233	0.0017	0.0485	0.0	605.211	605.0	605.0	1.0	0.0	1	-30.0	30.0								
	234	235	0.0002	0.0259	0.144	1133.323	1133.0	1133.0	0	0	1	-30.0	30.0								
	234	237	0.0006	0.0272	0.0	1079.308	1079.0	1079.0	1.0	0.0	1	-30.0	30.0								
	235	238	0.0002	0.0006	0.8	9900.0	46378.0	46378.0	0	0	1	-30.0	30.0								
	241	237	0.0005	0.0154	0.0	1904.533	1904.0	1904.0	1.0	0.0	1	-30.0	30.0								
	240	281	0.0003	0.0043	0.009	6805.0	6805.0	6805.0	0	0	1	-30.0	30.0								
	242	245	0.0082	0.0851	0.0	344.099	344.0	344.0	1.0	0.0	1	-30.0	30.0								
	242	247	0.0112	0.0723	0.0	401.114	401.0	401.0	1.0	0.0	1	-30.0	30.0								
	243	244	0.0127	0.0355	0.0	778.256	778.0	778.0	0	0	1	-30.0	30.0								
	243	245	0.0326	0.1804	0.0	161.044	161.0	161.0	0	0	1	-30.0	30.0								
	244	246	0.0195	0.0551	0.0	502.141	502.0	502.0	0	0	1	-30.0	30.0								
	245	246	0.0157	0.0732	0.0	392.112	392.0	392.0	0	0	1	-30.0	30.0								
	245	247	0.036	0.2119	0.0	137.039	137.0	137.0	0	0	1	-30.0	30.0								
	246	247	0.0268	0.1285	0.0	224.064	224.0	224.0	0	0	1	-30.0	30.0								
	247	248	0.0428	0.1215	0.0	228.064	228.0	228.0	0	0	1	-30.0	30.0								
	248	249	0.0351	0.1004	0.0	276.0	276.0	276.0	0	0	1	-30.0	30.0								
	249	250	0.0616	0.1857	0.0	150.0	150.0	150.0	0	0	1	-30.0	30.0								
	3	1	0.0	0.052	0.0	565.161	565.0	565.0	0.947	0.0	1	-30.0	30.0								
	3	2	0.0	0.052	0.0	565.161	565.0	565.0	0.956	0.0	1	-30.0	30.0								
	3	4	0.0	0.005	0.0	5868.67	5867.0	5867.0	0.971	0.0	1	-30.0	30.0								
	7	5	0.0	0.039	0.0	753.213	753.0	753.0	0.948	0.0	1	-30.0	30.0								
	7	6	0.0	0.039	0.0	753.215	753.0	753.0	0.959	0.0	1	-30.0	30.0								
	10	11	0.0	0.089	0.0	330.094	330.0	330.0	1.046	0.0	1	-30.0	30.0								
	12	10	0.0	0.053	0.0	554.156	554.0	554.0	0.985	0.0	1	-30.0	30.0								
	15	17	0.0194	0.0311	0.0	801.28	801.0	801.0	0.9561	0.0	1	-30.0	30.0								
	16	15	0.001	0.038	0.0	772.205	772.0	772.0	0.971	0.0	1	-30.0	30.0								
	21	20	0.0	0.014	0.0	2096.585	2096.0	2096.0	0.952	0.0	1	-30.0	30.0								
	24	23	0.0	0.064	0.0	459.13	459.0	459.0	0.943	0.0	1	-30.0	30.0								
	36	35	0.0	0.047	0.0	625.179	625.0	625.0	1.01	0.0	1	-30.0	30.0								
	45	44	0.0	0.02	0.0	1467.414	1467.0	1467.0	1.008	0.0	1	-30.0	30.0								
	45	46	0.0	0.021	0.0	1397.397	1397.0	1397.0	1.0	0.0	1	-30.0	30.0								
	62	61	0.0	0.059	0.0	498.142	498.0	498.0	0.975	0.0	1	-30.0	30.0								
	63	64	0.0	0.038	0.0	772.0	772.0	772.0	1.017	0.0	1	-30.0	30.0								
	73	74	0.0	0.0244	0.0	1203.341	1203.0	1203.0	1.0	0.0	1	-30.0	30.0								
	81	88	0.0	0.02	0.0	1467.418	1467.0	1467.0	1.0	0.0	1	-30.0	30.0								
	85	99	0.0	0.048	0.0	612.174	612.0	612.0	1.0	0.0	1	-30.0	30.0								
	86	102	0.0	0.048	0.0	612.174	612.0	612.0	1.0	0.0	1	-30.0	30.0								
	87	94	0.0	0.046	0.0	638.182	638.0	638.0	1.015	0.0	1	-30.0	30.0								
	114	207	0.0	0.149	0.0	197.056	197.0	197.0	0.967	0.0	1	-30.0	30.0								
	116	124	0.0052	0.0174	0.0	1616.0	1616.0	1616.0	1.01	0.0	1	-30.0	30.0								
	121	115	0.0	0.028	0.0	1048.3	1048.0	1048.0	1.05	0.0	1	-30.0	30.0								
	122	157	0.0005	0.0195	0.0	1504.427	1504.0	1504.0	1.0	0.0	1	-30.0	30.0								
	130	131	0.0	0.018	0.0	1630.465	1630.0	1630.0	1.0522	0.0	1	-30.0	30.0								
	130	150	0.0	0.014	0.0	2096.598	2096.0	2096.0	1.0522	0.0	1	-30.0	30.0								
	132	170	0.001	0.0402	0.0	730.207	730.0	730.0	1.05	0.0	1	-30.0	30.0								
	141	174	0.0024	0.0603	0.0	487.138	487.0	487.0	0.975	0.0	1	-30.0	30.0								
	142	175	0.0024	0.0498	-0.087	589.161	589.0	589.0	1.0	0.0	1	-30.0	30.0								
	143	144	0.0	0.0833	0.0	353.099	353.0	353.0	1.035	0.0	1	-30.0	30.0								
	143	148	0.0013	0.0371	0.0	791.221	791.0	791.0	0.9565	0.0	1	-30.0	30.0								
	145	180	0.0005	0.0182	0.0	1612.453	1612.0	1612.0	1.0	0.0	1	-30.0	30.0								
	151	170	0.001	0.0392	0.0	749.211	749.0	749.0	1.05	0.0	1	-30.0	30.0								
	153	183	0.0027	0.0639	0.0	459.0	459.0	459.0	1.073	0.0	1	-30.0	30.0								
	155	156	0.0008	0.0256	0.0	1146.0	1146.0	1146.0	1.05	0.0	1	-30.0	30.0								
	159	117	0.0	0.016	0.0	1834.512	1834.0	1834.0	1.0506	0.0	1	-30.0	30.0								
	160	124	0.0012	0.0396	0.0	741.202	741.0	741.0	0.975	0.0	1	-30.0	30.0								
	163	137	0.0013	0.0384	-0.057	764.219	764.0	764.0	0.98	0.0	1	-30.0	30.0								
	164	155	0.0009	0.0231	-0.033	1269.36	1269.0	1269.0	0.956	0.0	1	-30.0	30.0								
	182	139	0.0003	0.0131	0.0	2239.744	2239.0	2239.0	1.05	0.0	1	-30.0	30.0								
	189	210	0.0	0.252	0.0	117.034	117.0	117.0	1.03	0.0	1	-30.0	30.0								
	193	196	0.0	0.237	0.0	124.035	124.0	124.0	1.03	0.0	1	-30.0	30.0								
	195	212	0.0008	0.0366	0.0	802.228	802.0	802.0	0.985	0.0	1	-30.0	30.0								
	200	248	0.0	0.22	0.0	134.039	134.0	134.0	1.0	0.0	1	-30.0	30.0								
	201	69	0.0	0.098	0.0	300.085	300.0	300.0	1.03	0.0	1	-30.0	30.0								
	202	211	0.0	0.128	0.0	230.0	230.0	230.0	1.01	0.0	1	-30.0	30.0								
	204	2040	0.02	0.204	-0.012	144.04	144.0	144.0	1.05	0.0	1	-30.0	30.0								
	209	198	0.026	0.211	0.0	138.038	138.0	138.0	1.03	0.0	1	-30.0	30.0								
	211	212	0.003	0.0122	0.0	2335.666	2335.0	2335.0	1.0	0.0	1	-30.0	30.0								
	218	219	0.001	0.0354	-0.01	829.236	829.0	829.0	0.97	0.0	1	-30.0	30.0								
	223	224	0.0012	0.0195	-0.364	1502.428	1502.0	1502.0	1.0	0.0	1	-30.0	30.0								
	229	230	0.001	0.0332	0.0	884.271	884.0	884.0	1.02	0.0	1	-30.0	30.0								
	234	236	0.0005	0.016	0.0	1833.551	1833.0	1833.0	1.07	0.0	1	-30.0	30.0								
	238	239	0.0005	0.016	0.0	1833.582	1833.0	1833.0	1.02	0.0	1	-30.0	30.0								
	196	2040	0.0001	0.02	0.0	1467.0	1467.0	1467.0	1.0	-11.4	1	-30.0	30.0								
	119	1190	0.001	0.023	0.0	1275.0	1275.0	1275.0	1.0223	0.0	1	-30.0	30.0								
	120	1200	0.0	0.023	0.0	1276.0	1276.0	1276.0	0.9284	0.0	1	-30.0	30.0								
	7002	2	0.001	0.0146	0.0	2005.649	2005.0	2005.0	1.0	0.0	1	-30.0	30.0								
	7003	3	0.0	0.01054	0.0	2783.852	2783.0	2783.0	1.0	0.0	1	-30.0	30.0								
	7061	61	0.0	0.0238	0.0	1233.361	1233.0	1233.0	1.0	0.0	1	-30.0	30.0								
	7062	62	0.0	0.03214	0.0	913.289	913.0	913.0	0.95	0.0	1	-30.0	30.0								
	7166	166	0.0	0.0154	0.0	1905.629	1905.0	1905.0	1.0	0.0	1	-30.0	30.0								
	7024	24	0.0	0.0289	0.0	1015.321	1015.0	1015.0	1.0	0.0	1	-30.0	30.0								
	7001	1	0.0	0.01953	0.0	1502.484	1502.0	1502.0	1.0	0.0	1	-30.0	30.0								
	7130	130	0.0	0.0193	0.0	1520.407	1520.0	1520.0	1.0	0.0	1	-30.0	30.0								
	7011	11	0.0	0.01923	0.0	1526.486	1526.0	1526.0	1.0	0.0	1	-30.0	30.0								
	7023	23	0.0	0.023	0.0	1276.424	1276.0	1276.0	1.0	0.0	1	-30.0	30.0								
	7049	49	0.0	0.0124	0.0	2366.774	2366.0	2366.0	1.0	0.0	1	-30.0	30.0								
	7139	139	0.0	0.0167	0.0	1757.504	1757.0	1757.0	1.0	0.0	1	-30.0	30.0								
	7012	12	0.0	0.0312	0.0	941.292	941.0	941.0	1.0	0.0	1	-30.0	30.0								
	7017	17	0.0	0.01654	0.0	1774.579	1774.0	1774.0	0.942	0.0	1	-30.0	30.0								
	7039	39	0.0	0.03159	0.0	929.279	929.0	929.0	0.965	0.0	1	-30.0	30.0								
	7057	57	0.0	0.05347	0.0	549.176	549.0	549.0	0.95	0.0	1	-30.0	30.0								
	7044	44	0.0	0.18181	0.0	162.051	162.0	162.0	0.942	0.0	1	-30.0	30.0								
	7055	55	0.0	0.19607	0.0	150.047	150.0	150.0	0.942	0.0	1	-30.0	30.0								
	7071	71	0.0	0.06896	0.0	426.135	426.0	426.0	0.9565	0.0	1	-30.0	30.0								
];

%%-----	  OPF Data  -----%%
%% cost data
%    1    startup    shutdown    n    x1    y1    ...    xn    yn
%    2    startup    shutdown    n    c(n-1)    ...    c0
mpc.gencost = [
	2	0.0	0.0	2	0.0	0.0
	2	0.0	0.0	2	0.0	0.0
	2	0.0	0.0	2	0.0	0.0
	2	0.0	0.0	2	0.0	0.0
	2	0.0	0.0	2	0.0	0.0
	2	0.0	0.0	2	22.40984	0.0
	2	0.0	0.0	2	46.10005	0.0
	2	0.0	0.0	2	54.16494	0.0
	2	0.0	0.0	2	27.23842	0.0
	2	0.0	0.0	2	38.43072	0.0
	2	0.0	0.0	2	7.69891	0.0
	2	0.0	0.0	2	26.75413	0.0
	2	0.0	0.0	2	0.0	0.0
	2	0.0	0.0	2	0.0	0.0
	2	0.0	0.0	2	30.59792	0.0
	2	0.0	0.0	2	30.75867	0.0
	2	0.0	0.0	2	19.29228	0.0
	2	0.0	0.0	2	49.86186	0.0
	2	0.0	0.0	2	35.84236	0.0
	2	0.0	0.0	2	34.95596	0.0
	2	0.0	0.0	2	22.76272	0.0
	2	0.0	0.0	2	0.0	0.0
	2	0.0	0.0	2	35.37597	0.0
	2	0.0	0.0	2	0.0	0.0
	2	0.0	0.0	2	33.86852	0.0
	2	0.0	0.0	2	29.03127	0.0
	2	0.0	0.0	2	28.39152	0.0
	2	0.0	0.0	2	1.0002	0.0
	2	0.0	0.0	2	27.27854	0.0
	2	0.0	0.0	2	49.15571	0.0
	2	0.0	0.0	2	24.06266	0.0
	2	0.0	0.0	2	31.01666	0.0
	2	0.0	0.0	2	49.7218	0.0
	2	0.0	0.0	2	21.29166	0.0
	2	0.0	0.0	2	31.43703	0.0
	2	0.0	0.0	2	50.84287	0.0
	2	0.0	0.0	2	28.01046	0.0
	2	0.0	0.0	2	39.82857	0.0
	2	0.0	0.0	2	35.65078	0.0
	2	0.0	0.0	2	32.62127	0.0
	2	0.0	0.0	2	39.65769	0.0
	2	0.0	0.0	2	41.22331	0.0
	2	0.0	0.0	2	39.06472	0.0
	2	0.0	0.0	2	116.93941	0.0
	2	0.0	0.0	2	34.33656	0.0
	2	0.0	0.0	2	38.27488	0.0
	2	0.0	0.0	2	23.46676	0.0
	2	0.0	0.0	2	7.50996	0.0
	2	0.0	0.0	2	26.68296	0.0
	2	0.0	0.0	2	28.43487	0.0
	2	0.0	0.0	2	35.12665	0.0
	2	0.0	0.0	2	51.0624	0.0
	2	0.0	0.0	2	29.99202	0.0
	2	0.0	0.0	2	103.9875	0.0
	2	0.0	0.0	2	38.82569	0.0
	2	0.0	0.0	2	6.84307	0.0
	2	0.0	0.0	2	29.77256	0.0
	2	0.0	0.0	2	62.4271	0.0
	2	0.0	0.0	2	20.81152	0.0
	2	0.0	0.0	2	26.50789	0.0
	2	0.0	0.0	2	31.58752	0.0
	2	0.0	0.0	2	29.75992	0.0
	2	0.0	0.0	2	36.17906	0.0
	2	0.0	0.0	2	36.90837	0.0
	2	0.0	0.0	2	0.0	0.0
	2	0.0	0.0	2	0.0	0.0
	2	0.0	0.0	2	0.0	0.0
	2	0.0	0.0	2	32.96147	0.0
	2	0.0	0.0	2	94.75821	0.0
];

	 